[board]
type=System
children=cache_hierarchy clk_domain dvfs_handler memory processor workload
auto_unlink_shared_backstore=false
cache_line_size=64
eventq_index=0
exit_on_work_items=true
external_memory_ranges=
init_param=0
m5ops_base=4294901760
mem_mode=timing
mem_ranges=0:2147483648
memories=board.memory.module
mmap_using_noreserve=false
multi_thread=false
num_work_ids=16
readfile=
redirect_paths=
shadow_rom_ranges=
shared_backstore=
symbolfile=
thermal_components=
thermal_model=Null
work_begin_ckpt_count=0
work_begin_cpu_id_exit=-1
work_begin_exit_count=0
work_cpus_ckpt_count=0
work_end_ckpt_count=0
work_end_exit_count=0
work_item_id=-1
workload=board.workload
system_port=board.cache_hierarchy.membus.cpu_side_ports[0]

[board.cache_hierarchy]
type=SubSystem
children=l1d-cache-0 l1i-cache-0 l2-cache-0 l2buses membus
eventq_index=0
thermal_domain=Null

[board.cache_hierarchy.l1d-cache-0]
type=Cache
children=power_state prefetcher replacement_policy tags
addr_ranges=0:18446744073709551615
assoc=8
clk_domain=board.clk_domain
clusivity=mostly_incl
compressor=Null
data_latency=1
demand_mshr_reserve=1
eventq_index=0
is_read_only=false
max_miss_count=0
move_contractions=true
mshrs=16
partitioning_manager=Null
power_model=
power_state=board.cache_hierarchy.l1d-cache-0.power_state
prefetcher=board.cache_hierarchy.l1d-cache-0.prefetcher
replace_expansions=true
replacement_policy=board.cache_hierarchy.l1d-cache-0.replacement_policy
response_latency=1
sequential_access=false
size=32768
system=board
tag_latency=1
tags=board.cache_hierarchy.l1d-cache-0.tags
tgts_per_mshr=20
warmup_percentage=0
write_allocator=Null
write_buffers=8
writeback_clean=false
cpu_side=board.processor.cores.core.dcache_port
mem_side=board.cache_hierarchy.l2buses.cpu_side_ports[1]

[board.cache_hierarchy.l1d-cache-0.power_state]
type=PowerState
clk_gate_bins=20
clk_gate_max=1000000000000
clk_gate_min=1000
default_state=UNDEFINED
eventq_index=0
leaders=
possible_states=

[board.cache_hierarchy.l1d-cache-0.prefetcher]
type=StridePrefetcher
children=power_state table_indexing_policy table_replacement_policy
block_size=64
cache_snoop=false
clk_domain=board.clk_domain
confidence_counter_bits=3
confidence_threshold=50
degree=4
distance=0
eventq_index=0
initial_confidence=4
latency=1
max_prefetch_requests_with_pending_translation=32
on_data=true
on_inst=false
on_miss=false
on_read=true
on_write=true
page_bytes=4096
power_model=
power_state=board.cache_hierarchy.l1d-cache-0.prefetcher.power_state
prefetch_on_access=false
prefetch_on_pf_hit=true
queue_filter=true
queue_size=32
queue_squash=true
sys=board
table_assoc=4
table_entries=64
table_indexing_policy=board.cache_hierarchy.l1d-cache-0.prefetcher.table_indexing_policy
table_replacement_policy=board.cache_hierarchy.l1d-cache-0.prefetcher.table_replacement_policy
tag_prefetch=true
throttle_control_percentage=0
use_cache_line_address=true
use_requestor_id=true
use_virtual_addresses=false

[board.cache_hierarchy.l1d-cache-0.prefetcher.power_state]
type=PowerState
clk_gate_bins=20
clk_gate_max=1000000000000
clk_gate_min=1000
default_state=UNDEFINED
eventq_index=0
leaders=
possible_states=

[board.cache_hierarchy.l1d-cache-0.prefetcher.table_indexing_policy]
type=StridePrefetcherHashedSetAssociative
assoc=4
entry_size=1
eventq_index=0
size=64

[board.cache_hierarchy.l1d-cache-0.prefetcher.table_replacement_policy]
type=RandomRP
eventq_index=0

[board.cache_hierarchy.l1d-cache-0.replacement_policy]
type=LRURP
eventq_index=0

[board.cache_hierarchy.l1d-cache-0.tags]
type=BaseSetAssoc
children=indexing_policy power_state
assoc=8
block_size=64
clk_domain=board.clk_domain
entry_size=64
eventq_index=0
indexing_policy=board.cache_hierarchy.l1d-cache-0.tags.indexing_policy
partitioning_manager=Null
power_model=
power_state=board.cache_hierarchy.l1d-cache-0.tags.power_state
replacement_policy=board.cache_hierarchy.l1d-cache-0.replacement_policy
sequential_access=false
size=32768
system=board
tag_latency=1
warmup_percentage=0

[board.cache_hierarchy.l1d-cache-0.tags.indexing_policy]
type=TaggedSetAssociative
assoc=8
entry_size=64
eventq_index=0
size=32768

[board.cache_hierarchy.l1d-cache-0.tags.power_state]
type=PowerState
clk_gate_bins=20
clk_gate_max=1000000000000
clk_gate_min=1000
default_state=UNDEFINED
eventq_index=0
leaders=
possible_states=

[board.cache_hierarchy.l1i-cache-0]
type=Cache
children=power_state prefetcher replacement_policy tags
addr_ranges=0:18446744073709551615
assoc=8
clk_domain=board.clk_domain
clusivity=mostly_incl
compressor=Null
data_latency=1
demand_mshr_reserve=1
eventq_index=0
is_read_only=false
max_miss_count=0
move_contractions=true
mshrs=16
partitioning_manager=Null
power_model=
power_state=board.cache_hierarchy.l1i-cache-0.power_state
prefetcher=board.cache_hierarchy.l1i-cache-0.prefetcher
replace_expansions=true
replacement_policy=board.cache_hierarchy.l1i-cache-0.replacement_policy
response_latency=1
sequential_access=false
size=32768
system=board
tag_latency=1
tags=board.cache_hierarchy.l1i-cache-0.tags
tgts_per_mshr=20
warmup_percentage=0
write_allocator=Null
write_buffers=8
writeback_clean=true
cpu_side=board.processor.cores.core.icache_port
mem_side=board.cache_hierarchy.l2buses.cpu_side_ports[0]

[board.cache_hierarchy.l1i-cache-0.power_state]
type=PowerState
clk_gate_bins=20
clk_gate_max=1000000000000
clk_gate_min=1000
default_state=UNDEFINED
eventq_index=0
leaders=
possible_states=

[board.cache_hierarchy.l1i-cache-0.prefetcher]
type=StridePrefetcher
children=power_state table_indexing_policy table_replacement_policy
block_size=64
cache_snoop=false
clk_domain=board.clk_domain
confidence_counter_bits=3
confidence_threshold=50
degree=4
distance=0
eventq_index=0
initial_confidence=4
latency=1
max_prefetch_requests_with_pending_translation=32
on_data=true
on_inst=false
on_miss=false
on_read=true
on_write=true
page_bytes=4096
power_model=
power_state=board.cache_hierarchy.l1i-cache-0.prefetcher.power_state
prefetch_on_access=false
prefetch_on_pf_hit=true
queue_filter=true
queue_size=32
queue_squash=true
sys=board
table_assoc=4
table_entries=64
table_indexing_policy=board.cache_hierarchy.l1i-cache-0.prefetcher.table_indexing_policy
table_replacement_policy=board.cache_hierarchy.l1i-cache-0.prefetcher.table_replacement_policy
tag_prefetch=true
throttle_control_percentage=0
use_cache_line_address=true
use_requestor_id=true
use_virtual_addresses=false

[board.cache_hierarchy.l1i-cache-0.prefetcher.power_state]
type=PowerState
clk_gate_bins=20
clk_gate_max=1000000000000
clk_gate_min=1000
default_state=UNDEFINED
eventq_index=0
leaders=
possible_states=

[board.cache_hierarchy.l1i-cache-0.prefetcher.table_indexing_policy]
type=StridePrefetcherHashedSetAssociative
assoc=4
entry_size=1
eventq_index=0
size=64

[board.cache_hierarchy.l1i-cache-0.prefetcher.table_replacement_policy]
type=RandomRP
eventq_index=0

[board.cache_hierarchy.l1i-cache-0.replacement_policy]
type=LRURP
eventq_index=0

[board.cache_hierarchy.l1i-cache-0.tags]
type=BaseSetAssoc
children=indexing_policy power_state
assoc=8
block_size=64
clk_domain=board.clk_domain
entry_size=64
eventq_index=0
indexing_policy=board.cache_hierarchy.l1i-cache-0.tags.indexing_policy
partitioning_manager=Null
power_model=
power_state=board.cache_hierarchy.l1i-cache-0.tags.power_state
replacement_policy=board.cache_hierarchy.l1i-cache-0.replacement_policy
sequential_access=false
size=32768
system=board
tag_latency=1
warmup_percentage=0

[board.cache_hierarchy.l1i-cache-0.tags.indexing_policy]
type=TaggedSetAssociative
assoc=8
entry_size=64
eventq_index=0
size=32768

[board.cache_hierarchy.l1i-cache-0.tags.power_state]
type=PowerState
clk_gate_bins=20
clk_gate_max=1000000000000
clk_gate_min=1000
default_state=UNDEFINED
eventq_index=0
leaders=
possible_states=

[board.cache_hierarchy.l2-cache-0]
type=Cache
children=power_state prefetcher replacement_policy tags
addr_ranges=0:18446744073709551615
assoc=16
clk_domain=board.clk_domain
clusivity=mostly_incl
compressor=Null
data_latency=10
demand_mshr_reserve=1
eventq_index=0
is_read_only=false
max_miss_count=0
move_contractions=true
mshrs=20
partitioning_manager=Null
power_model=
power_state=board.cache_hierarchy.l2-cache-0.power_state
prefetcher=board.cache_hierarchy.l2-cache-0.prefetcher
replace_expansions=true
replacement_policy=board.cache_hierarchy.l2-cache-0.replacement_policy
response_latency=1
sequential_access=false
size=262144
system=board
tag_latency=10
tags=board.cache_hierarchy.l2-cache-0.tags
tgts_per_mshr=12
warmup_percentage=0
write_allocator=Null
write_buffers=8
writeback_clean=false
cpu_side=board.cache_hierarchy.l2buses.mem_side_ports[0]
mem_side=board.cache_hierarchy.membus.cpu_side_ports[1]

[board.cache_hierarchy.l2-cache-0.power_state]
type=PowerState
clk_gate_bins=20
clk_gate_max=1000000000000
clk_gate_min=1000
default_state=UNDEFINED
eventq_index=0
leaders=
possible_states=

[board.cache_hierarchy.l2-cache-0.prefetcher]
type=StridePrefetcher
children=power_state table_indexing_policy table_replacement_policy
block_size=64
cache_snoop=false
clk_domain=board.clk_domain
confidence_counter_bits=3
confidence_threshold=50
degree=4
distance=0
eventq_index=0
initial_confidence=4
latency=1
max_prefetch_requests_with_pending_translation=32
on_data=true
on_inst=false
on_miss=false
on_read=true
on_write=true
page_bytes=4096
power_model=
power_state=board.cache_hierarchy.l2-cache-0.prefetcher.power_state
prefetch_on_access=false
prefetch_on_pf_hit=true
queue_filter=true
queue_size=32
queue_squash=true
sys=board
table_assoc=4
table_entries=64
table_indexing_policy=board.cache_hierarchy.l2-cache-0.prefetcher.table_indexing_policy
table_replacement_policy=board.cache_hierarchy.l2-cache-0.prefetcher.table_replacement_policy
tag_prefetch=true
throttle_control_percentage=0
use_cache_line_address=true
use_requestor_id=true
use_virtual_addresses=false

[board.cache_hierarchy.l2-cache-0.prefetcher.power_state]
type=PowerState
clk_gate_bins=20
clk_gate_max=1000000000000
clk_gate_min=1000
default_state=UNDEFINED
eventq_index=0
leaders=
possible_states=

[board.cache_hierarchy.l2-cache-0.prefetcher.table_indexing_policy]
type=StridePrefetcherHashedSetAssociative
assoc=4
entry_size=1
eventq_index=0
size=64

[board.cache_hierarchy.l2-cache-0.prefetcher.table_replacement_policy]
type=RandomRP
eventq_index=0

[board.cache_hierarchy.l2-cache-0.replacement_policy]
type=LRURP
eventq_index=0

[board.cache_hierarchy.l2-cache-0.tags]
type=BaseSetAssoc
children=indexing_policy power_state
assoc=16
block_size=64
clk_domain=board.clk_domain
entry_size=64
eventq_index=0
indexing_policy=board.cache_hierarchy.l2-cache-0.tags.indexing_policy
partitioning_manager=Null
power_model=
power_state=board.cache_hierarchy.l2-cache-0.tags.power_state
replacement_policy=board.cache_hierarchy.l2-cache-0.replacement_policy
sequential_access=false
size=262144
system=board
tag_latency=10
warmup_percentage=0

[board.cache_hierarchy.l2-cache-0.tags.indexing_policy]
type=TaggedSetAssociative
assoc=16
entry_size=64
eventq_index=0
size=262144

[board.cache_hierarchy.l2-cache-0.tags.power_state]
type=PowerState
clk_gate_bins=20
clk_gate_max=1000000000000
clk_gate_min=1000
default_state=UNDEFINED
eventq_index=0
leaders=
possible_states=

[board.cache_hierarchy.l2buses]
type=CoherentXBar
children=power_state snoop_filter
clk_domain=board.clk_domain
eventq_index=0
forward_latency=0
frontend_latency=1
header_latency=1
max_outstanding_snoops=512
max_routing_table_size=512
point_of_coherency=false
point_of_unification=true
power_model=
power_state=board.cache_hierarchy.l2buses.power_state
response_latency=1
snoop_filter=board.cache_hierarchy.l2buses.snoop_filter
snoop_response_latency=1
system=board
use_default_range=false
width=32
cpu_side_ports=board.cache_hierarchy.l1i-cache-0.mem_side board.cache_hierarchy.l1d-cache-0.mem_side board.processor.cores.core.mmu.itb.walker.port board.processor.cores.core.mmu.dtb.walker.port
mem_side_ports=board.cache_hierarchy.l2-cache-0.cpu_side

[board.cache_hierarchy.l2buses.power_state]
type=PowerState
clk_gate_bins=20
clk_gate_max=1000000000000
clk_gate_min=1000
default_state=UNDEFINED
eventq_index=0
leaders=
possible_states=

[board.cache_hierarchy.l2buses.snoop_filter]
type=SnoopFilter
eventq_index=0
lookup_latency=0
max_capacity=8388608
system=board

[board.cache_hierarchy.membus]
type=CoherentXBar
children=badaddr_responder power_state snoop_filter
clk_domain=board.clk_domain
eventq_index=0
forward_latency=4
frontend_latency=3
header_latency=1
max_outstanding_snoops=512
max_routing_table_size=512
point_of_coherency=true
point_of_unification=true
power_model=
power_state=board.cache_hierarchy.membus.power_state
response_latency=2
snoop_filter=board.cache_hierarchy.membus.snoop_filter
snoop_response_latency=4
system=board
use_default_range=false
width=64
cpu_side_ports=board.system_port board.cache_hierarchy.l2-cache-0.mem_side board.processor.cores.core.interrupts.int_requestor
default=board.cache_hierarchy.membus.badaddr_responder.pio
mem_side_ports=board.memory.module.port board.processor.cores.core.interrupts.pio board.processor.cores.core.interrupts.int_responder

[board.cache_hierarchy.membus.badaddr_responder]
type=IsaFake
children=power_state
clk_domain=board.clk_domain
eventq_index=0
fake_mem=false
pio_addr=0
pio_latency=100000
pio_size=8
power_model=
power_state=board.cache_hierarchy.membus.badaddr_responder.power_state
ret_bad_addr=true
ret_data16=65535
ret_data32=4294967295
ret_data64=18446744073709551615
ret_data8=255
system=board
update_data=false
warn_access=
pio=board.cache_hierarchy.membus.default

[board.cache_hierarchy.membus.badaddr_responder.power_state]
type=PowerState
clk_gate_bins=20
clk_gate_max=1000000000000
clk_gate_min=1000
default_state=UNDEFINED
eventq_index=0
leaders=
possible_states=

[board.cache_hierarchy.membus.power_state]
type=PowerState
clk_gate_bins=20
clk_gate_max=1000000000000
clk_gate_min=1000
default_state=UNDEFINED
eventq_index=0
leaders=
possible_states=

[board.cache_hierarchy.membus.snoop_filter]
type=SnoopFilter
eventq_index=0
lookup_latency=1
max_capacity=8388608
system=board

[board.clk_domain]
type=SrcClockDomain
children=voltage_domain
clock=333
domain_id=-1
eventq_index=0
init_perf_level=0
voltage_domain=board.clk_domain.voltage_domain

[board.clk_domain.voltage_domain]
type=VoltageDomain
eventq_index=0
voltage=1.0

[board.dvfs_handler]
type=DVFSHandler
domains=
enable=false
eventq_index=0
sys_clk_domain=board.clk_domain
transition_latency=100000000

[board.memory]
type=SubSystem
children=module
eventq_index=0
thermal_domain=Null

[board.memory.module]
type=SimpleMemory
children=power_state
bandwidth=9.000000
clk_domain=board.clk_domain
collect_stats=true
conf_table_reported=true
eventq_index=0
image_file=
in_addr_map=true
kvm_map=true
latency=40000
latency_var=0
null=false
power_model=
power_state=board.memory.module.power_state
range=0:2147483648
writeable=true
port=board.cache_hierarchy.membus.mem_side_ports[0]

[board.memory.module.power_state]
type=PowerState
clk_gate_bins=20
clk_gate_max=1000000000000
clk_gate_min=1000
default_state=UNDEFINED
eventq_index=0
leaders=
possible_states=

[board.processor]
type=SubSystem
children=cores
eventq_index=0
thermal_domain=Null

[board.processor.cores]
type=SubSystem
children=core
eventq_index=0
thermal_domain=Null

[board.processor.cores.core]
type=BaseTimingSimpleCPU
children=decoder interrupts isa mmu power_state tracer workload
branchPred=Null
checker=Null
clk_domain=board.clk_domain
cpu_id=0
decoder=board.processor.cores.core.decoder
do_checkpoint_insts=true
do_statistics_insts=true
eventq_index=0
function_trace=false
function_trace_start=0
interrupts=board.processor.cores.core.interrupts
isa=board.processor.cores.core.isa
max_insts_all_threads=0
max_insts_any_thread=0
mmu=board.processor.cores.core.mmu
numThreads=1
power_gating_on_idle=false
power_model=
power_state=board.processor.cores.core.power_state
progress_interval=0
pwr_gating_latency=300
simpoint_start_insts=
socket_id=0
switched_out=false
syscallRetryLatency=10000
system=board
tracer=board.processor.cores.core.tracer
workload=board.processor.cores.core.workload
dcache_port=board.cache_hierarchy.l1d-cache-0.cpu_side
icache_port=board.cache_hierarchy.l1i-cache-0.cpu_side

[board.processor.cores.core.decoder]
type=X86Decoder
eventq_index=0
isa=board.processor.cores.core.isa

[board.processor.cores.core.interrupts]
type=X86LocalApic
children=clk_domain
clk_domain=board.processor.cores.core.interrupts.clk_domain
eventq_index=0
int_latency=1000
pio_latency=100000
system=board
int_requestor=board.cache_hierarchy.membus.cpu_side_ports[2]
int_responder=board.cache_hierarchy.membus.mem_side_ports[2]
pio=board.cache_hierarchy.membus.mem_side_ports[1]

[board.processor.cores.core.interrupts.clk_domain]
type=DerivedClockDomain
clk_divider=16
clk_domain=board.clk_domain
eventq_index=0

[board.processor.cores.core.isa]
type=X86ISA
APMInfo=2147483672 1752462657 1769238117 1145913699
CacheParams=0 0 0 0
ExtendedFeatures=0 25165824 0 0
ExtendedState=0 0 0 0 0 0 0 0
FamilyModelStepping=134993 2053 4024171519 521
FamilyModelSteppingBrandFeatures=134993 1029 3956538367 131073
L1CacheAndTLB=4278779656 4280352544 1073873216 1073873216
L2L3CacheAndL2TLB=0 1107313152 0 67141952
LongModeAddressSize=12336 0 0 0
eventq_index=0
name_string=Fake gem5 x86_64 CPU
vendor_string=HygonGenuine

[board.processor.cores.core.mmu]
type=X86MMU
children=dtb itb
dtb=board.processor.cores.core.mmu.dtb
eventq_index=0
itb=board.processor.cores.core.mmu.itb

[board.processor.cores.core.mmu.dtb]
type=X86TLB
children=walker
entry_type=data
eventq_index=0
next_level=Null
size=64
system=board
walker=board.processor.cores.core.mmu.dtb.walker

[board.processor.cores.core.mmu.dtb.walker]
type=X86PagetableWalker
children=power_state
clk_domain=board.clk_domain
eventq_index=0
num_squash_per_cycle=4
power_model=
power_state=board.processor.cores.core.mmu.dtb.walker.power_state
system=board
port=board.cache_hierarchy.l2buses.cpu_side_ports[3]

[board.processor.cores.core.mmu.dtb.walker.power_state]
type=PowerState
clk_gate_bins=20
clk_gate_max=1000000000000
clk_gate_min=1000
default_state=UNDEFINED
eventq_index=0
leaders=
possible_states=

[board.processor.cores.core.mmu.itb]
type=X86TLB
children=walker
entry_type=instruction
eventq_index=0
next_level=Null
size=64
system=board
walker=board.processor.cores.core.mmu.itb.walker

[board.processor.cores.core.mmu.itb.walker]
type=X86PagetableWalker
children=power_state
clk_domain=board.clk_domain
eventq_index=0
num_squash_per_cycle=4
power_model=
power_state=board.processor.cores.core.mmu.itb.walker.power_state
system=board
port=board.cache_hierarchy.l2buses.cpu_side_ports[2]

[board.processor.cores.core.mmu.itb.walker.power_state]
type=PowerState
clk_gate_bins=20
clk_gate_max=1000000000000
clk_gate_min=1000
default_state=UNDEFINED
eventq_index=0
leaders=
possible_states=

[board.processor.cores.core.power_state]
type=PowerState
clk_gate_bins=20
clk_gate_max=1000000000000
clk_gate_min=1000
default_state=UNDEFINED
eventq_index=0
leaders=
possible_states=ON CLK_GATED OFF

[board.processor.cores.core.tracer]
type=ExeTracer
children=disassembler
disassembler=board.processor.cores.core.tracer.disassembler
eventq_index=0

[board.processor.cores.core.tracer.disassembler]
type=InstDisassembler
eventq_index=0

[board.processor.cores.core.workload]
type=Process
cmd=/home/hasanat/abrar/cxl_tax/benches/fence_sweep 1000 16
cwd=/home/hasanat/abrar/cxl_tax
drivers=
egid=100
env=
errout=cerr
euid=100
eventq_index=0
executable=/home/hasanat/abrar/cxl_tax/benches/fence_sweep
gid=100
input=cin
kvmInSE=false
maxStackSize=67108864
output=cout
pgid=100
pid=100
ppid=0
release=5.1.0
simpoint=0
system=board
uid=100
useArchPT=false
zeroPages=true

[board.workload]
type=X86EmuLinux
eventq_index=0
remote_gdb_port=#7000
wait_for_remote_gdb=false

[root]
type=Root
children=board
eventq_index=0
full_system=false
sim_quantum=0
time_sync_enable=false
time_sync_period=100000000000
time_sync_spin_threshold=100000000

